    6
 MP2/AVDZ  ENERGY=-115.42689199
O   0.0000000000        0.0000000000    0.0000000000
H   -0.9658081475       0.0000000000    0.0000000000
C   0.4371881141        1.3664973705    0.0000000000
H   0.0965595997        1.9062256626    0.8987823813
H   1.5337031672        1.3396209523    0.0000000000
H   0.0965596000        1.9062256619    -0.8987823831
